
**** 07/01/25 21:05:23 ********* PSpice 9.2 (Mar 2000) ******** ID# 1 ********

 ** Profile: "SCHEMATIC1-s1"  [ c:\users\alimi\desktop\elec project\file3\ep3-schematic1-s1.sim ] 


 ****     CIRCUIT DESCRIPTION


******************************************************************************




** Creating circuit file "ep3-schematic1-s1.sim.cir" 
** WARNING: THIS AUTOMATICALLY GENERATED FILE MAY BE OVERWRITTEN BY SUBSEQUENT SIMULATIONS

*Libraries: 
* Local Libraries :
* From [PSPICE NETLIST] section of C:\Program Files\Orcad\PSpice\PSpice.ini file:
.lib "nom.lib" 

*Analysis directives: 
.AC DEC 1000 50 1meg
.PROBE V(*) I(*) W(*) D(*) NOISE(*) 
.INC ".\ep3-SCHEMATIC1.net" 



**** INCLUDING ep3-SCHEMATIC1.net ****
* source EP3
Q_Q1         N01207 O1 N00954 Q2N4355
R_R1         O1 N00857  360k  
C_C1         N04630 O1  1u  
R_R13         IN N05372  100  
C_C4         N05165 IN  10u  
V_V1         OUT 0 DC 0Vdc AC 20mVac 
R_R2         N00954 N00857  1k  
C_C3         N01576 OUT  1u  
R_R14         0 IN  0.5k  
R_R3         O2 N00857  326594  
R_R15         N05165 0  50  
V_V2         N00857 0 10Vdc
R_R4         N01487 N00857  1k  
R_R16         0 N04695  7.8376k  
R_R5         0 O1  180k  
R_R6         0 N01207  322.7  
R_R9         0 OUT  6.75  
R_R7         0 O2  360k  
C_C2         N01207 O2  1u  
Q_Q3         N04630 N04695 N05372 BC368 
R_R8         N01576 N01547  0.5k  
R_R9         0 N01576  0.5k  
$
ERROR -- Name "R_R9" is defined more than once
Q_Q2         N01487 O2 N01547 BC368 
R_R11         N04630 N00857  8.3635k  
C_C5         0 N04695  1u  
R_R12         N04695 N00857  50k  

**** RESUMING ep3-schematic1-s1.sim.cir ****
.END
